/*--------------------------------*- C++ -*----------------------------------*\
  =========                 |
  \\      /  F ield         | OpenFOAM: The Open Source CFD Toolbox
   \\    /   O peration     | Website:  https://openfoam.org
    \\  /    A nd           | Version:  12
     \\/     M anipulation  |
\*---------------------------------------------------------------------------*/
FoamFile
{
    format      ascii;
    class       polyBoundaryMesh;
    location    "constant/polyMesh";
    object      boundary;
}
// * * * * * * * * * * * * * * * * * * * * * * * * * * * * * * * * * * * * * //

6
(
    inlet
    {
        type            patch;
        nFaces          65;
        startFace       40747;
    }
    outlet
    {
        type            patch;
        nFaces          113;
        startFace       40812;
    }
    upperWall
    {
        type            wall;
        inGroups        List<word> 1(wall);
        nFaces          220;
        startFace       40925;
    }
    lowerWall
    {
        type            wall;
        inGroups        List<word> 1(wall);
        nFaces          268;
        startFace       41145;
    }
    front
    {
        type            empty;
        inGroups        List<word> 1(empty);
        nFaces          20540;
        startFace       41413;
    }
    back
    {
        type            empty;
        inGroups        List<word> 1(empty);
        nFaces          20540;
        startFace       61953;
    }
)

// ************************************************************************* //
